+00 slot  head
+18 undef field18
----
 1C sizeof
